E:\caddWork\Nidhi\3IX8\Ligands\TX3_A174.pdb
 OpenBabel07052608273D

 45 47  0  0  0  0  0  0  0  0999 V2000
    3.2740   13.6890   28.5510 C   0  0  0  0  0  0  0  0  0  0  0  0
    4.4440   14.5430   28.8370 C   0  0  0  0  0  0  0  0  0  0  0  0
    5.7110   13.9600   28.7460 C   0  0  0  0  0  0  0  0  0  0  0  0
    5.8520   12.6120   28.3820 C   0  0  0  0  0  0  0  0  0  0  0  0
    4.7620   11.7880   28.1010 C   0  0  0  0  0  0  0  0  0  0  0  0
    3.4630   12.2740   28.1750 C   0  0  0  0  0  0  0  0  0  0  0  0
    2.2610   11.4080   27.8740 C   0  0  0  0  0  0  0  0  0  0  0  0
    2.5530   10.5110   26.7610 N   0  0  0  0  0  0  0  0  0  0  0  0
    2.8270    9.2270   26.9790 C   0  0  0  0  0  0  0  0  0  0  0  0
    2.9360    8.7780   28.1200 O   0  0  0  0  0  0  0  0  0  0  0  0
    3.0320    8.3040   25.8150 C   0  0  0  0  0  0  0  0  0  0  0  0
    2.0160    7.4550   25.3830 C   0  0  0  0  0  0  0  0  0  0  0  0
    2.2310    6.5970   24.2920 C   0  0  0  0  0  0  0  0  0  0  0  0
    3.4580    6.5750   23.6260 C   0  0  0  0  0  0  0  0  0  0  0  0
    4.5160    7.4100   24.0170 C   0  0  0  0  0  0  0  0  0  0  0  0
    4.3370    8.2840   25.1000 C   0  0  0  0  0  0  0  0  0  0  0  0
    5.6630    9.3760   25.6340 Cl  0  0  0  0  0  0  0  0  0  0  0  0
    4.1620   16.3750   29.2860 Br  0  0  0  0  0  0  0  0  0  0  0  0
    7.5640   11.8360   28.2390 Br  0  0  0  0  0  0  0  0  0  0  0  0
    2.0140   14.1940   28.6150 O   0  0  0  0  0  0  0  0  0  0  0  0
    1.3840   14.4970   29.8670 C   0  0  0  0  0  0  0  0  0  0  0  0
    2.0070   14.3610   30.9110 O   0  0  0  0  0  0  0  0  0  0  0  0
   -0.0300   14.9810   29.7930 C   0  0  0  0  0  0  0  0  0  0  0  0
   -0.9220   14.3840   28.8980 C   0  0  0  0  0  0  0  0  0  0  0  0
   -2.2360   14.8490   28.8260 C   0  0  0  0  0  0  0  0  0  0  0  0
   -2.6690   15.9030   29.6350 C   0  0  0  0  0  0  0  0  0  0  0  0
   -1.8100   16.5280   30.5370 C   0  0  0  0  0  0  0  0  0  0  0  0
   -0.4870   16.1050   30.6400 C   0  0  0  0  0  0  0  0  0  0  0  0
    0.4670   16.7680   31.6060 C   0  0  0  0  0  0  0  0  0  0  0  0
    6.5501   14.5257   28.9482 H   0  0  0  0  0  0  0  0  0  0  0  0
    4.9230   10.8041   27.8346 H   0  0  0  0  0  0  0  0  0  0  0  0
    2.0167   10.8290   28.7400 H   0  0  0  0  0  0  0  0  0  0  0  0
    1.4356   12.0356   27.6097 H   0  0  0  0  0  0  0  0  0  0  0  0
    2.5473   10.8588   25.8400 H   0  0  0  0  0  0  0  0  0  0  0  0
    1.1037    7.4563   25.8653 H   0  0  0  0  0  0  0  0  0  0  0  0
    1.4709    5.9736   23.9780 H   0  0  0  0  0  0  0  0  0  0  0  0
    3.5896    5.9316   22.8300 H   0  0  0  0  0  0  0  0  0  0  0  0
    5.4163    7.3815   23.5133 H   0  0  0  0  0  0  0  0  0  0  0  0
   -0.6117   13.6058   28.2954 H   0  0  0  0  0  0  0  0  0  0  0  0
   -2.8965   14.4086   28.1666 H   0  0  0  0  0  0  0  0  0  0  0  0
   -3.6466   16.2257   29.5629 H   0  0  0  0  0  0  0  0  0  0  0  0
   -2.1532   17.3021   31.1270 H   0  0  0  0  0  0  0  0  0  0  0  0
    1.4277   16.3023   31.5347 H   0  0  0  0  0  0  0  0  0  0  0  0
    0.0937   16.6647   32.6034 H   0  0  0  0  0  0  0  0  0  0  0  0
    0.5552   17.8065   31.3639 H   0  0  0  0  0  0  0  0  0  0  0  0
  1 20  1  0  0  0  0
  1  2  1  0  0  0  0
  2 18  1  0  0  0  0
  3  2  2  0  0  0  0
  3 30  1  0  0  0  0
  4  3  1  0  0  0  0
  5  6  1  0  0  0  0
  5  4  2  0  0  0  0
  5 31  1  0  0  0  0
  6  1  2  0  0  0  0
  7  6  1  0  0  0  0
  7 32  1  0  0  0  0
  7 33  1  0  0  0  0
  8  9  1  0  0  0  0
  8  7  1  0  0  0  0
  8 34  1  0  0  0  0
  9 10  2  0  0  0  0
 11  9  1  0  0  0  0
 12 11  1  0  0  0  0
 12 35  1  0  0  0  0
 13 12  2  0  0  0  0
 13 36  1  0  0  0  0
 14 15  2  0  0  0  0
 14 13  1  0  0  0  0
 14 37  1  0  0  0  0
 15 16  1  0  0  0  0
 15 38  1  0  0  0  0
 16 17  1  0  0  0  0
 16 11  2  0  0  0  0
 19  4  1  0  0  0  0
 20 21  1  0  0  0  0
 21 22  2  0  0  0  0
 23 21  1  0  0  0  0
 23 28  1  0  0  0  0
 24 23  2  0  0  0  0
 24 39  1  0  0  0  0
 25 24  1  0  0  0  0
 25 26  2  0  0  0  0
 25 40  1  0  0  0  0
 26 27  1  0  0  0  0
 26 41  1  0  0  0  0
 27 28  2  0  0  0  0
 27 42  1  0  0  0  0
 28 29  1  0  0  0  0
 29 43  1  0  0  0  0
 29 44  1  0  0  0  0
 29 45  1  0  0  0  0
M  END
$$$$
